launcher/output/tcopflowout/t6.m
function mpc = t6

%%-----  Power Flow Data  -----%%
%% system MVA base
mpc.baseMVA = 100;

%% OPF objective
mpc.obj = 0;

%% OPF convergence status
mpc.converged = 1;

%% bus data
%	bus_i	type	Pd	Qd	Gs	Bs	area	Vm	Va	baseKV	zone	Vmax	Vmin	mult_Pmis	mult_Qmis	Pslack	Qslack
mpc.bus = [
	1	1	0	0	0	0	1	0.972030827	-0.63534658	115	2	1.1	0.9	5.92900925e-09	-1.72452684e-08	0	0;
	2	1	4.41330404	1.25411887	0	0	1	0.971957174	-0.643771393	115	2	1.1	0.9	9.74739381e-09	-1.57437928e-08	0	0;
	3	1	0	0	0	0	1	1.01231848	-3.89830036	115	4	1.1	0.9	-9.32203441e-08	-5.58077789e-07	0	0;
	4	1	1.04688871	0.295592105	0	0	1	1.01230291	-3.90013899	115	4	1.1	0.9	-9.24049471e-08	-5.58011185e-07	0	0;
	5	1	0	0	0	0	1	0.993314108	-2.77471851	115	6	1.1	0.9	-5.49228274e-08	-3.6275907e-07	0	0;
	6	1	4.59022243	1.30489342	0	0	1	0.993238184	-2.78308814	115	6	1.1	0.9	-5.1134247e-08	-3.61591128e-07	0	0;
	7	1	0	0	0	0	1	0.96800767	-1.11138206	115	2	1.1	0.9	1.18128384e-08	-2.87047525e-09	0	0;
	8	1	14.1775153	4.04304037	0	0	1	0.967781467	-1.13746602	115	2	1.1	0.9	2.41515726e-08	1.12294779e-09	0	0;
	9	1	0	0	0	0	1	0.969550779	-0.825745708	115	2	1.1	0.9	8.43874422e-09	-8.97830759e-09	0	0;
	10	1	25.4884731	7.26194548	0	0	1	0.969099135	-0.884813228	115	2	1.1	0.9	3.16690443e-08	-1.78128073e-09	0	0;
	11	1	0	0	0	0	1	1.02521922	-3.02856705	115	4	1.1	0.9	-8.73255443e-08	-5.8858164e-07	0	0;
	12	1	0.184745066	0.0554235197	0	0	1	1.02521635	-3.02890672	115	4	1.1	0.9	-8.72362518e-08	-5.88928841e-07	0	0;
	13	1	1.55185855	0.443388158	0	0	1	1.02519425	-3.03146798	115	4	1.1	0.9	-8.6147798e-08	-5.88624976e-07	0	0;
	14	1	0	0	0	0	1	1.0154526	-2.40128263	230	4	1.1	0.9	-6.92540301e-08	-4.59945507e-07	0	0;
	15	1	0	0	0	30	1	1.02284234	-2.88109359	115	4	1.1	0.9	-7.44406347e-08	-5.04611825e-07	0	0;
	16	1	27.5639638	7.85782346	0	0	1	1.022447	-2.92703713	115	4	1.1	0.9	-5.00003491e-08	-4.97931167e-07	0	0;
	17	1	0	0	0	0	1	0.989835822	-2.92277148	115	4	1.1	0.9	-3.80262656e-08	-2.40282652e-07	0	0;
	18	1	0.437229989	0.123163377	0	0	1	0.989828715	-2.92373908	115	4	1.1	0.9	-3.76436415e-08	-2.40008989e-07	0	0;
	19	1	0.474179002	0.135479715	0	0	1	0.989829145	-2.92358455	115	4	1.1	0.9	-3.76107231e-08	-2.40035403e-07	0	0;
	20	1	0.695873081	0.197061404	0	0	1	0.989824794	-2.92405846	115	4	1.1	0.9	-3.74231132e-08	-2.3997316e-07	0	0;
	21	1	2.83891584	0.806720121	0	0	1	0.98978592	-2.92902032	115	4	1.1	0.9	-3.565606e-08	-2.39443292e-07	0	0;
	22	1	0	0	0	0	1	1.02680036	-3.12730646	115	4	1.1	0.9	-9.77920364e-08	-6.55333754e-07	0	0;
	23	1	0.868301809	0.246326754	0	0	1	1.02678742	-3.12874438	115	4	1.1	0.9	-9.71677291e-08	-6.55518185e-07	0	0;
	24	1	1.47796053	0.418755482	0	0	1	1.02677796	-3.12961353	115	4	1.1	0.9	-9.66836002e-08	-6.55360334e-07	0	0;
	25	1	0	0	0	0	1	1.00181651	-3.03763881	115	6	1.1	0.9	-6.50545342e-08	-4.20837861e-07	0	0;
	26	1	0.779471733	0.225180723	0	0	1	1.00180486	-3.03892696	115	6	1.1	0.9	-6.44217079e-08	-4.20677061e-07	0	0;
	27	1	0	0	0	0	1	1.02760851	-3.15623042	115	4	1.1	0.9	-9.72592097e-08	-6.48295417e-07	0	0;
	28	1	1.43485334	0.412597314	0	0	1	1.0275844	-3.15918517	115	4	1.1	0.9	-9.61908799e-08	-6.48453687e-07	0	0;
	29	1	0	0	0	0	1	0.970448365	-0.443146942	115	2	1.1	0.9	5.80208445e-09	-2.15681113e-08	0	0;
	30	1	35.2885163	10.056839	0	0	1	0.969870606	-0.506157623	115	2	1.1	0.9	4.03134451e-08	-1.12892207e-08	0	0;
	31	1	0	0	0	0	1	0.976220837	-3.10545075	115	7	1.1	0.9	-2.42878515e-08	-1.52857377e-07	0	0;
	32	1	0.351264438	0.10331307	0	0	1	0.976214327	-3.10622956	115	7	1.1	0.9	-2.39230421e-08	-1.52348006e-07	0	0;
	33	1	4.43557447	1.26730699	0	0	1	0.976149588	-3.1147533	115	7	1.1	0.9	-2.05297592e-08	-1.5140183e-07	0	0;
	34	1	0	0	0	0	1	1.01703395	-3.57975861	115	4	1.1	0.9	-9.7356987e-08	-6.1147933e-07	0	0;
	35	1	12.7843586	3.64563596	0	0	1	1.01682984	-3.60462019	115	4	1.1	0.9	-8.69772307e-08	-6.08769488e-07	0	0;
	36	1	0	0	0	0	1	0.984272551	-3.08345963	115	7	1.1	0.9	-2.66207073e-08	-1.70778918e-07	0	0;
	37	1	2.45885106	0.702528875	0	0	1	0.984235003	-3.08807003	115	7	1.1	0.9	-2.45345517e-08	-1.69962952e-07	0	0;
	38	1	20.5317508	5.85440729	0	0	1	0.98392359	-3.12378741	115	7	1.1	0.9	-8.66401415e-09	-1.65416968e-07	0	0;
	39	1	4.56320312	1.29937363	0	0	1	1.00124174	-4.09312406	115	4	1.1	0.9	-7.49423588e-08	-4.19760797e-07	0	0;
	40	1	1.25626645	0.357173794	0	0	1	1.00122433	-4.09524898	115	4	1.1	0.9	-7.39176948e-08	-4.1948473e-07	0	0;
	41	1	22.9579306	6.54486649	0	0	1	1.02172276	-4.5970812	115	5	1.1	0.9	-8.82423861e-08	-4.65547869e-07	0	0;
	42	1	6.53997533	1.86592516	0	0	1	1.00478846	-3.86606819	115	4	1.1	0.9	-7.62438559e-08	-4.27210739e-07	0	0;
	43	1	1.24814688	0.352347684	0	0	1	0.971701271	-2.27524809	115	2	1.1	0.9	-1.32096963e-08	-9.73721719e-08	0	0;
	44	1	2.55564008	0.726663925	0	0	1	0.998671772	-3.30635792	115	4	1.1	0.9	-5.89206055e-08	-3.50736479e-07	0	0;
	45	1	0	0	0	0	1	0.990375838	-0.914245763	230	7	1.1	0.9	-3.28930945e-08	-2.62300083e-07	0	0;
	46	1	4.36669909	1.24664438	0	0	1	0.991899982	-1.42023907	115	7	1.1	0.9	-3.36060885e-08	-2.72880868e-07	0	0;
	47	1	0.948358004	0.27095943	0	0	1	1.02291375	-2.94696157	115	4	1.1	0.9	-9.16827905e-08	-6.36498697e-07	0	0;
	48	1	1.05084337	0.300240964	0	0	1	0.993263987	-2.93231088	115	6	1.1	0.9	-5.31818275e-08	-3.4214784e-07	0	0;
	49	2	0	0	0	0	1	0.997020548	-2.52372835	13.8	6	1.1	0.9	-6.16000972e-08	-3.39532526e-07	0	0;
	50	2	0	0	0	0	1	0.99613867	-2.62204563	13.8	6	1.1	0.9	-6.29774279e-08	-3.40273343e-07	0	0;
	51	2	0	0	0	0	1	0.997520949	-2.46045587	13.8	6	1.1	0.9	-6.66159055e-08	-3.42114819e-07	0	0;
	52	2	0	0	0	0	1	0.995980293	-2.64116205	13.8	6	1.1	0.9	-6.87145699e-08	-3.43087478e-07	0	0;
	53	2	0	0	0	0	1	0.999514944	-2.03951862	13.8	6	1.1	0.9	-6.07928494e-08	-3.43822075e-07	0	0;
	54	1	1.63807292	0.468020833	0	0	1	1.02137465	-3.11438056	115	4	1.1	0.9	-9.32769014e-08	-6.29976688e-07	0	0;
	55	1	0	0	0	0	1	0.987342452	-0.957962719	230	7	1.1	0.9	-2.94120452e-08	-2.35603992e-07	0	0;
	56	1	0.902267477	0.254838906	0	0	1	0.987187538	-1.1562545	115	7	1.1	0.9	-2.90203286e-08	-2.24969336e-07	0	0;
	57	1	1.73660362	0.492653509	0	0	1	1.00865453	-4.07426721	115	4	1.1	0.9	-8.88132117e-08	-5.12146115e-07	0	0;
	58	1	2.91342857	0.833392097	0	0	1	0.992296163	-3.24296956	115	7	1.1	0.9	-3.32820396e-08	-2.04498786e-07	0	0;
	59	1	2.82475346	0.806219276	0	0	1	0.978326795	-2.31044999	115	2	1.1	0.9	-7.25281264e-09	-8.34293187e-08	0	0;
	60	1	2.26935796	0.644975421	0	0	1	0.981704731	-0.330103922	115	2	1.1	0.9	-8.51314397e-09	-1.13112822e-07	0	0;
	61	1	14.1538906	4.03609726	0	0	1	0.988157943	-1.4891217	115	7	1.1	0.9	-3.13263506e-08	-2.46790855e-07	0	0;
	62	1	13.1846395	3.756483	0	0	1	1.00561603	-4.36368995	115	4	1.1	0.9	-8.72428378e-08	-4.74049156e-07	0	0;
	63	1	4.91421875	1.39790433	0	0	1	1.02558062	-3.49878104	115	4	1.1	0.9	-9.52540458e-08	-5.9850354e-07	0	0;
	64	1	0	0	0	0	1	0.994046889	-2.43230462	115	6	1.1	0.9	-5.59080229e-08	-3.91476158e-07	0	0;
	65	2	0	0	0	0	1	0.97650228	-0.73604322	13.8	6	1.1	0.9	-3.91250025e-08	-3.9132867e-07	0	0;
	66	1	0	0	0	0	1	1.02433752	-2.74703235	115	4	1.1	0.9	-8.88176763e-08	-6.38240646e-07	0	0;
	67	2	0	0	0	0	1	1.02536607	-2.64167513	13.8	4	1.1	0.9	-1.01841518e-07	-6.58375968e-07	0	0;
	68	2	0	0	0	0	1	1.02251619	-1.52903657	13.8	4	1.1	0.9	-7.52133822e-08	-6.66058831e-07	0	0;
	69	2	0	0	0	0	1	1.02395015	-2.31032914	13.8	4	1.1	0.9	-9.38973637e-08	-6.47784059e-07	0	0;
	70	2	0	0	0	0	1	1.02319092	-1.83025102	13.8	4	1.1	0.9	-8.31770122e-08	-6.59241274e-07	0	0;
	71	2	0	0	0	0	1	1.02399167	-2.37228047	13.8	4	1.1	0.9	-9.63078319e-08	-6.46149276e-07	0	0;
	72	2	0	0	0	0	1	1.02404924	-2.40409579	13.8	4	1.1	0.9	-9.70260657e-08	-6.45372819e-07	0	0;
	73	2	0	0	0	0	1	1.023698	-2.07359372	13.8	4	1.1	0.9	-9.13547332e-08	-6.53308488e-07	0	0;
	74	1	10.8317702	3.08901761	0	0	1	0.990476841	-3.33641664	115	6	1.1	0.9	-5.31395772e-08	-3.2155393e-07	0	0;
	75	1	2.14991807	0.615115448	0	0	1	0.977431423	0.325568648	115	2	1.1	0.9	6.19748572e-09	1.76035808e-08	0	0;
	76	2	0	0	0	0	1	0.984402434	0.867216461	13.8	2	1.1	0.9	-9.12895289e-09	5.92049919e-08	0	0;
	77	2	0	0	0	0	1	0.988573325	1.23859891	13.8	2	1.1	0.9	-1.0341208e-07	5.12989038e-08	0	0;
	78	1	0	0	0	0	1	0.977431423	0.325568648	13.8	2	1.1	0.9	7.07499703e-09	3.62348795e-08	0	0;
	79	1	0	0	0	0	1	0.977431423	0.325568648	13.8	2	1.1	0.9	7.29437485e-09	4.61323526e-08	0	0;
	80	1	0.886221629	0.251495327	0	0	1	1.01970598	-4.18998623	115	5	1.1	0.9	-8.03244821e-08	-4.29673763e-07	0	0;
	81	1	0	0	0	0	1	0.996266599	-1.96057743	230	6	1.1	0.9	-4.3379646e-08	-2.8387632e-07	0	0;
	82	1	4.38813716	1.25292864	0	0	1	0.994343473	-2.38455455	115	6	1.1	0.9	-4.33594074e-08	-2.65832975e-07	0	0;
	83	1	2.16268693	0.612990881	0	0	1	0.983145948	-2.0585993	115	7	1.1	0.9	-2.15268591e-08	-1.5317633e-07	0	0;
	84	1	2.23949799	0.639003426	0	0	1	0.973110146	-2.46989465	115	2	1.1	0.9	-2.00171146e-08	-1.28069387e-07	0	0;
	85	1	2.97439556	0.849827303	0	0	1	0.997372551	-3.79214466	115	4	1.1	0.9	-6.273936e-08	-3.59738125e-07	0	0;
	86	1	4.92689558	1.40341874	0	0	1	0.968662137	-0.976808805	115	2	1.1	0.9	9.91118988e-09	-5.45345062e-09	0	0;
	87	1	0	0	0	0	1	1.01237538	-2.85942747	230	3	1.1	0.9	-7.8653103e-08	-4.97687961e-07	0	0;
	88	1	29.2785563	8.34326107	0	0	1	1.01302952	-3.60104806	115	3	1.1	0.9	-8.80141619e-08	-4.98551948e-07	0	0;
	89	1	43.2881763	12.3355805	0	0	1	1.00007663	-3.56342629	115	7	1.1	0.9	-5.22045547e-08	-3.04416163e-07	0	0;
	90	2	0	0	0	0	1	1.01225208	-2.34243148	13.8	7	1.1	0.9	-1.49762748e-07	-4.73310278e-07	0	0;
	91	2	0	0	0	0	1	1.00453341	-3.14427689	13.8	7	1.1	0.9	-6.03553997e-08	-3.18218614e-07	0	0;
	92	1	0	0	0	0	1	1.00007663	-3.56342629	13.8	7	1.1	0.9	-5.22108752e-08	-3.04533276e-07	0	0;
	93	1	1.88439967	0.535760691	0	0	1	1.02745351	-3.27971903	115	4	1.1	0.9	-9.35876441e-08	-6.08499463e-07	0	0;
	94	2	0	0	0	0	1	1.02830557	-2.45881504	13.8	4	1.1	0.9	-8.87935306e-08	-6.43954518e-07	0	0;
	95	1	2.0662614	0.585440729	0	30	1	1.00549868	-3.53038871	115	7	1.1	0.9	-4.42513618e-08	-2.60940503e-07	0	0;
	96	1	2.03871125	0.578553191	0	0	1	1.00284117	-2.61645361	115	7	1.1	0.9	-5.3845982e-08	-3.45558681e-07	0	0;
	97	1	4.37747207	1.24814688	0	0	1	0.98591914	-1.47677721	115	2	1.1	0.9	-2.13708493e-08	-1.81640036e-07	0	0;
	98	1	0	0	0	0	1	0.97448602	0.594419331	230	2	1.1	0.9	-2.32593372e-10	-2.54612604e-08	0	0;
	99	1	7.26791747	2.07228214	0	0	1	0.972448401	-0.0407530617	115	2	1.1	0.9	3.95974111e-09	-1.54890833e-08	0	0;
	100	1	22.3890721	6.38319092	0	80	1	1.03008185	-4.4790839	115	5	1.1	0.9	-8.72838607e-08	-4.61807477e-07	0	0;
	101	1	0.310543721	0.0895799196	0	0	1	0.969362745	-0.942625907	115	2	1.1	0.9	8.86297163e-09	-9.66287074e-09	0	0;
	102	1	0	0	0	0	1	0.986189802	-0.752212646	230	7	1.1	0.9	-2.88685264e-08	-2.32348211e-07	0	0;
	103	1	0	0	0	0	1	0.987112731	-1.1879244	115	7	1.1	0.9	-2.86706467e-08	-2.24069096e-07	0	0;
	104	2	0	0	0	0	1	0.980032537	0.598028013	13.8	7	1.1	0.9	-3.14263471e-08	-2.23823654e-07	0	0;
	105	2	0	0	0	0	1	0.973707817	1.08309844	13.8	7	1.1	0.9	-2.0789057e-08	-2.28665841e-07	0	0;
	106	1	1.41883283	0.406364742	0	0	1	0.985306771	-1.32170012	115	7	1.1	0.9	-2.36100797e-08	-1.90449825e-07	0	0;
	107	1	36.2008997	10.3175319	0	0	1	0.971032387	-3.15588516	115	7	1.1	0.9	-2.63532583e-08	-1.64862184e-07	0	0;
	108	1	5.62561895	1.60049456	0	0	1	0.976354951	-0.0466117482	115	2	1.1	0.9	8.19841978e-09	1.65130865e-08	0	0;
	109	1	3.17761513	0.905250822	0	0	1	0.986031159	-2.23054627	115	4	1.1	0.9	-2.70881037e-08	-1.8700339e-07	0	0;
	110	1	6.48558618	1.84534634	0	0	1	0.969403677	-0.920164046	115	2	1.1	0.9	8.91420898e-09	-8.6580798e-09	0	0;
	111	1	5.28140187	1.50298398	0	0	1	1.01833348	-4.65319362	115	5	1.1	0.9	-8.83920885e-08	-4.62834358e-07	0	0;
	112	1	0	0	0	0	1	0.982165377	-0.921409137	230	7	1.1	0.9	-2.52504518e-08	-2.04967792e-07	0	0;
	113	1	0	0	0	0	1	0.974452519	-2.57978483	115	7	1.1	0.9	-2.69966171e-08	-1.60823674e-07	0	0;
	114	2	0	0	0	0	1	0.982834252	-0.7441105	13.8	7	1.1	0.9	-3.41904105e-08	-1.73068782e-07	0	0;
	115	2	0	0	0	0	1	0.973952862	0.778986112	13.8	7	1.1	0.9	-2.32222045e-08	-1.9812998e-07	0	0;
	116	1	0	0	0	0	1	0.973521728	0.495428736	230	2	1.1	0.9	-2.70200591e-09	-4.36668138e-08	0	0;
	117	1	20.3525577	5.79880679	0	0	1	0.971663372	-0.753646161	115	2	1.1	0.9	1.49632677e-09	-3.55647448e-08	0	0;
	118	1	2.35296589	0.668863399	0	0	1	0.973508056	-0.326163922	115	2	1.1	0.9	4.75720081e-09	-1.88000906e-08	0	0;
	119	1	10.4808506	2.98599732	0	0	1	0.974517414	-1.96155985	115	2	1.1	0.9	-1.22316553e-09	-5.31848359e-08	0	0;
	120	1	1.10847039	0.314066612	0	0	1	0.994406758	-3.4513617	115	4	1.1	0.9	-5.21659105e-08	-3.09507285e-07	0	0;
	121	1	0	0	0	0	1	1.00092755	-1.21566963	230	7	1.1	0.9	-4.13828612e-08	-3.47391181e-07	0	0;
	122	1	10.6343587	3.03051672	0	0	1	0.998106395	-1.85308609	115	7	1.1	0.9	-4.43419709e-08	-3.21704103e-07	0	0;
	123	1	0	0	0	0	1	0.977278549	1.28366937	230	2	1.1	0.9	-2.88103134e-09	-3.96781278e-08	0	0;
	124	1	0	0	0	0	1	0.974141558	0.0756729286	115	2	1.1	0.9	1.68084407e-09	-2.38895183e-08	0	0;
	125	2	0	0	0	0	1	0.989480609	3.6734676	13.8	2	1.1	0.9	-1.1485277e-08	-3.72207588e-08	0	0;
	126	2	0	0	0	0	1	0.984582941	2.80906531	13.8	2	1.1	0.9	-1.27748574e-08	-3.77914672e-08	0	0;
	127	2	0	0	0	0	1	0.980838729	2.01683642	13.8	2	1.1	0.9	-1.38380059e-08	-3.97368405e-08	0	0;
	128	1	0	0	0	0	1	0.982737803	-0.916284544	230	7	1.1	0.9	-2.59434359e-08	-2.04592022e-07	0	0;
	129	1	53.1993435	15.1594711	0	0	1	0.973239042	-2.791816	115	7	1.1	0.9	-2.86382485e-08	-1.80537488e-07	0	0;
	130	1	3.03051672	0.860942249	0	0	1	0.98360462	-1.39847383	115	7	1.1	0.9	-1.92393247e-08	-1.63497861e-07	0	0;
	131	1	18.0652838	5.14785938	0	0	1	0.969709808	-0.821840399	115	2	1.1	0.9	8.52203759e-09	-9.86769091e-09	0	0;
	132	1	16.1004975	4.58649188	0	0	1	0.969277865	-1.92579855	115	2	1.1	0.9	-4.51803784e-09	-6.21506099e-08	0	0;
	133	1	0	0	0	0	1	0.976753205	1.47897164	230	2	1.1	0.9	-5.52935222e-09	-5.32893577e-08	0	0;
	134	1	0	0	0	0	1	0.978346181	0.668941979	115	2	1.1	0.9	-2.44059015e-09	-6.26866931e-08	0	0;
	135	2	0	0	0	0	1	0.969975718	4.1987933	13.8	2	1.1	0.9	-4.18074259e-09	-4.87999912e-08	0	0;
	136	2	0	0	0	0	1	0.971319059	3.70670693	13.8	2	1.1	0.9	-5.02507948e-09	-4.97080091e-08	0	0;
	137	1	0.714347588	0.203219572	0	0	1	1.01458486	-3.76062906	115	4	1.1	0.9	-9.56398313e-08	-5.84136421e-07	0	0;
	138	1	1.20673772	0.346431881	0	0	1	0.991021375	-2.59418156	115	6	1.1	0.9	-3.38563717e-08	-2.20767189e-07	0	0;
	139	1	4.08484433	1.16453895	0	0	1	0.981640673	-2.50145074	115	2	1.1	0.9	-1.36044842e-08	-1.15358606e-07	0	0;
	140	1	4.9030076	1.39744675	0	0	1	0.973473211	-0.0476094053	115	2	1.1	0.9	2.56692643e-09	-3.57595e-08	0	0;
	141	1	0.848023238	0.24485178	0	0	1	0.969399663	-0.91148209	115	2	1.1	0.9	9.41866277e-09	-7.73950622e-09	0	0;
	142	1	22.251652	6.3422583	0	0	1	0.968293529	-0.901981061	115	2	1.1	0.9	9.22989032e-09	-5.57945235e-09	0	0;
	143	1	16.0358211	4.56883178	0	0	1	1.00681481	-3.80949978	115	5	1.1	0.9	-7.08141886e-08	-3.85036045e-07	0	0;
	144	1	5.40465515	1.54077462	0	0	1	0.977434563	-1.359387	115	2	1.1	0.9	-6.51820561e-09	-8.5761919e-08	0	0;
	145	1	10.4083072	2.9670203	0	0	1	1.01053185	-4.03117301	115	3	1.1	0.9	-9.4232754e-08	-5.05068428e-07	0	0;
	146	1	0	0	0	0	1	0.982593726	-1.81557512	115	7	1.1	0.9	-2.2097665e-08	-1.52590201e-07	0	0;
	147	2	0	0	0	0	1	0.977694852	0.184471686	13.8	7	1.1	0.9	-2.8957035e-08	-1.41257927e-07	0	0;
	148	1	19.1223268	5.4524311	0	0	1	0.966334805	-1.36099784	115	2	1.1	0.9	1.31042856e-08	2.83895118e-10	0	0;
	149	1	0	0	0	0	1	1.01258159	-2.60520536	230	3	1.1	0.9	-7.63660589e-08	-4.96566625e-07	0	0;
	150	1	0	0	0	0	1	1.01450339	-3.30285957	115	3	1.1	0.9	-8.53364682e-08	-4.96931038e-07	0	0;
	151	2	0	0	0	0	1	1.01667027	-2.04895129	13.8	3	1.1	0.9	-1.02063027e-07	-5.50148863e-07	0	0;
	152	2	0	0	0	0	1	1.0047158	-0.748150469	13.8	3	1.1	0.9	-6.48413987e-08	-5.02940728e-07	0	0;
	153	2	0	0	0	0	1	1.00258357	-0.173053139	13.8	3	1.1	0.9	-5.4830468e-08	-5.05270309e-07	0	0;
	154	2	0	0	0	0	1	1.00715874	-1.25725806	13.8	3	1.1	0.9	-7.37891026e-08	-5.0063754e-07	0	0;
	155	2	0	0	0	0	1	1.00735018	-1.29793819	13.8	3	1.1	0.9	-7.45027984e-08	-5.00425617e-07	0	0;
	156	1	0	0	0	0	1	0.977055061	1.29945304	230	2	1.1	0.9	-3.16800205e-09	-4.14580251e-08	0	0;
	157	1	8.81466408	2.51420974	0	0	1	0.976977941	0.811164544	115	2	1.1	0.9	-1.4249219e-09	-1.78742133e-08	0	0;
	158	1	5.52387747	1.57649123	0	0	1	1.02541634	-2.97689495	115	4	1.1	0.9	-9.14505964e-08	-6.31906782e-07	0	0;
	159	1	0.855985471	0.246326754	0	0	1	1.00531881	-4.17859934	115	4	1.1	0.9	-8.3595985e-08	-4.68955566e-07	0	0;
	160	1	0	0	0	0	1	1.00838899	-4.14606025	115	4	1.1	0.9	-8.57233407e-08	-4.75957607e-07	0	0;
	161	1	0	0	0	0	1	1.00838899	-4.14606025	13.8	4	1.1	0.9	-8.57725032e-08	-4.78797284e-07	0	0;
	162	1	0.865939222	0.24485178	0	0	1	0.975893926	-1.1895293	115	2	1.1	0.9	-3.79416581e-09	-6.60816241e-08	0	0;
	163	1	27.4249666	7.81431909	0	0	1	1.01889746	-4.55369882	115	5	1.1	0.9	-8.6871205e-08	-4.61308355e-07	0	0;
	164	1	0	0	0	0	1	1.01889746	-4.55369882	13.8	5	1.1	0.9	-8.75375829e-08	-4.70484347e-07	0	0;
	165	1	0	0	0	0	1	1.01889746	-4.55369882	13.8	5	1.1	0.9	-8.74720575e-08	-4.85801782e-07	0	0;
	166	1	0	0	0	0	1	1.01889746	-4.55369882	13.8	5	1.1	0.9	-8.82002257e-08	-4.92331424e-07	0	0;
	167	2	0	0	0	0	1	1.02107996	-4.25424493	13.8	5	1.1	0.9	-9.63147651e-08	-4.82203009e-07	0	0;
	168	1	0	0	0	0	1	1.01889746	-4.55369882	13.8	5	1.1	0.9	-8.8332738e-08	-5.01174349e-07	0	0;
	169	1	0	0	0	0	1	1.01889746	-4.55369882	13.8	5	1.1	0.9	-8.82002257e-08	-4.93495941e-07	0	0;
	170	2	0	0	0	0	1	1.02282297	-3.98109989	13.8	5	1.1	0.9	-9.75664233e-08	-5.01661139e-07	0	0;
	171	1	4.58444856	1.30489342	0	0	1	0.990904296	-3.13232834	115	6	1.1	0.9	-4.65740458e-08	-2.78490106e-07	0	0;
	172	1	3.22153538	0.916161549	0	0	1	1.01559731	-4.1467061	115	5	1.1	0.9	-8.55659017e-08	-4.72536951e-07	0	0;
	173	1	5.21553405	1.48502003	0	0	1	1.01865012	-4.52709887	115	5	1.1	0.9	-8.73208187e-08	-4.53085142e-07	0	0;
	174	1	1.65867156	0.473050734	0	0	1	1.02016676	-4.00942714	115	5	1.1	0.9	-7.8845413e-08	-4.30618812e-07	0	0;
	175	1	4.37721629	1.24550067	0	0	1	1.01824441	-4.65656254	115	5	1.1	0.9	-8.89654399e-08	-4.60419086e-07	0	0;
	176	1	11.2806112	3.21625	0	0	1	1.01155011	-3.83428294	115	3	1.1	0.9	-9.016772e-08	-5.01535938e-07	0	0;
	177	1	7.7760304	2.21778723	0	0	1	0.981973698	-2.8405349	115	7	1.1	0.9	-2.58387974e-08	-1.64705902e-07	0	0;
	178	1	0	0	0	0	1	1.00674027	-2.66528931	230	5	1.1	0.9	-6.25478631e-08	-3.59743595e-07	0	0;
	179	1	14.1376302	4.02991322	0	0	1	1.01762572	-3.89824012	115	5	1.1	0.9	-7.4624051e-08	-4.25366816e-07	0	0;
	180	1	4.6346996	1.32334446	0	0	1	1.01792107	-4.22718915	115	5	1.1	0.9	-8.69902664e-08	-4.775551e-07	0	0;
	181	1	29.5468942	8.41821683	0	0	1	1.00973056	-4.02489429	115	4	1.1	0.9	-8.51683277e-08	-4.751322e-07	0	0;
	182	2	0	0	0	0	1	1.01195919	-3.15206462	13.8	4	1.1	0.9	-8.31536603e-08	-4.90040846e-07	0	0;
	183	2	0	0	0	0	1	1.01005186	-3.51266887	13.8	4	1.1	0.9	-9.29529745e-08	-4.79982467e-07	0	0;
	184	1	6.40115487	1.82633511	0	0	1	1.02763119	-4.23130304	115	5	1.1	0.9	-9.49237983e-08	-5.2793344e-07	0	0;
	185	1	6.4028298	1.82175046	0	0	1	1.01175031	-3.8491391	115	3	1.1	0.9	-9.28251184e-08	-5.04226908e-07	0	0;
	186	1	1.25411887	0.358319678	0	0	1	0.983059676	-1.50387312	115	2	1.1	0.9	-1.90283195e-08	-1.42872251e-07	0	0;
	187	1	0	0	0	0	1	0.997811048	-0.777067293	230	7	1.1	0.9	-3.92178579e-08	-3.28591893e-07	0	0;
	188	1	0	0	0	0	1	1.00375965	-2.42806346	115	7	1.1	0.9	-5.22574744e-08	-3.38813415e-07	0	0;
	189	3	0	0	0	0	1	0.995058545	3.7674658e-23	13.8	7	1.1	0.9	-3.31152714e-08	-3.29978872e-07	0	0;
	190	1	9.69431881	2.75990732	0	0	1	0.989668807	-3.41604003	115	6	1.1	0.9	-5.09418231e-08	-3.00122643e-07	0	0;
	191	1	4.32931242	1.2335247	0	0	1	1.02407774	-3.89225836	115	5	1.1	0.9	-9.58153012e-08	-5.61200375e-07	0	0;
	192	1	36.3248754	10.3519696	0	0	1	0.971451455	-3.19980574	115	7	1.1	0.9	-2.52585341e-08	-1.59498971e-07	0	0;
	193	1	13.1324162	3.74444064	0	0	1	0.970060137	-0.796040634	115	2	1.1	0.9	7.77873812e-09	-1.04375129e-08	0	0;
	194	1	22.2941905	6.35535747	0	50	1	1.01623662	-3.74907934	115	3	1.1	0.9	-8.69585952e-08	-4.94535153e-07	0	0;
	195	1	0	0	0	0	1	0.993048685	-2.57602112	115	6	1.1	0.9	-4.05261245e-08	-2.54998178e-07	0	0;
	196	1	0	0	0	0	1	0.993048685	-2.57602112	13.8	6	1.1	0.9	-4.04414963e-08	-2.53215404e-07	0	0;
	197	1	0	0	0	0	1	0.993048685	-2.57602112	13.8	6	1.1	0.9	-4.04414963e-08	-2.49312234e-07	0	0;
	198	1	3.20696112	0.91371518	0	0	1	0.974592181	-0.338912672	115	2	1.1	0.9	6.68155132e-09	-3.3567828e-09	0	0;
	199	1	2.45966636	0.698637627	0	0	1	1.01072214	-3.72746563	115	6	1.1	0.9	-7.71175433e-08	-4.53444186e-07	0	0;
	200	1	5.75172971	1.63807292	0	0	1	0.991152688	-2.47562559	115	4	1.1	0.9	-3.81868059e-08	-2.58530586e-07	0	0;
];

%% generator data
%	bus	Pg	Qg	Qmax	Qmin	Vg	mBase	status	Pmax	Pmin	Pc1	Pc2	Qc1min	Qc1max	Qc2min	Qc2max	ramp_agc	ramp_10	ramp_30	ramp_q	apf	pgs
mpc.gen = [
	49	1.35999911	0.639320989	2.11	-0.55	0.997020548	5.44	1	4.53	1.36	0	0	0	0	0	0	3	30	90	0	0.00151126442	1.36;
	50	1.35999911	0.639020867	2.11	-0.55	0.99613867	5.44	1	4.53	1.36	0	0	0	0	0	0	3	30	90	0	0.00151126442	1.36;
	51	1.35999911	0.638275001	2.11	-0.55	0.997520949	5.44	1	4.53	1.36	0	0	0	0	0	0	3	30	90	0	0.00151126442	1.36;
	52	1.35999911	0.637881163	2.11	-0.55	0.995980293	5.44	1	4.53	1.36	0	0	0	0	0	0	3	30	90	0	0.00151126442	1.36;
	53	2.71999911	1.00451756	4.23	-1.11	0.999514944	10.88	1	9.07	2.72	0	0	0	0	0	0	3	30	90	0	0.00302586497	2.72;
	65	28.0774982	-16.8025798	32.04	-21.66	0.97650228	180.48	1	86.5	0	0	0	0	0	0	0	45	450	1350	0	0.0288574774	86.5;
	67	1.40999911	0.52560914	2.19	-0.57	1.02536607	5.64	1	4.7	1.41	0	0	0	0	0	0	3	30	90	0	0.00156797854	1.41;
	68	8.37999911	-0.831355436	13.01	-3.41	1.02251619	33.5	1	27.92	8.38	0	0	0	0	0	0	3	30	90	0	0.00931445976	8.38;
	69	8.37999911	-0.774540773	13.01	-3.41	1.02395015	33.5	1	27.92	8.38	0	0	0	0	0	0	3	30	90	0	0.00931445976	8.38;
	70	8.37999911	-0.810437299	13.01	-3.41	1.02319092	33.5	1	27.92	8.38	0	0	0	0	0	0	3	30	90	0	0.00931445976	8.38;
	71	8.37999911	-0.769341273	13.01	-3.41	1.02399167	33.5	1	27.92	8.38	0	0	0	0	0	0	3	30	90	0	0.00931445976	8.38;
	72	8.37999911	-0.766864827	13.01	-3.41	1.02404924	33.5	1	27.92	8.38	0	0	0	0	0	0	3	30	90	0	0.00931445976	8.38;
	73	8.37999911	-0.791967191	13.01	-3.41	1.023698	33.5	1	27.92	8.38	0	0	0	0	0	0	3	30	90	0	0.00931445976	8.38;
	76	1.19999909	0.821557629	2.04	-0.44	0.984402434	4.8	1	4	1.2	0	0	0	0	0	0	35	350	1050	0	0.00133444982	1.2;
	77	0.719999091	0.481743975	1.22	-0.27	0.988573325	2.88	1	2.4	0.72	0	0	0	0	0	0	35	350	1050	0	0.000800669894	0.72;
	78	0	0	9.16	-2	0.977431423	21.6	0	18	5.4	0	0	0	0	0	0	35	350	1050	0	0	11.7;
	79	0	0	9.16	-2	0.977431423	21.6	0	18	5.4	0	0	0	0	0	0	35	350	1050	0	0	11.7;
	90	0.959999091	0.525348105	1.63	-0.36	1.01225208	3.84	1	3.2	0.96	0	0	0	0	0	0	35	350	1050	0	0.00106755986	0.96;
	91	1.49999909	0.821306561	2.55	-0.55	1.00453341	6	1	5	1.5	0	0	0	0	0	0	35	350	1050	0	0.00166806228	1.5;
	92	0	0	3.21	-0.7	1.00007663	7.56	0	6.3	1.89	0	0	0	0	0	0	35	350	1050	0	0	4.095;
	94	5.39999911	0.145368421	8.39	-2.2	1.02830557	21.6	1	18	5.4	0	0	0	0	0	0	3	30	90	0	0.0060050242	5.4;
	104	25.7821499	-7.18797876	21.09	-14.26	0.980032537	118.8	1	67.6	0	0	0	0	0	0	0	45	450	1350	0	0.022552202	67.6;
	105	51.423812	-20.4648617	42.17	-28.51	0.973707817	237.6	1	154.8	0	0	0	0	0	0	0	45	450	1350	0	0.0516432082	154.8;
	114	0.69603153	0.0563108332	0.36	-0.24	0.982834252	2.04	1	1.4	0	0	0	0	0	0	0	45	450	1350	0	0.000467057438	1.4;
	115	44.9547813	-12.9881598	31.95	-21.6	0.973952862	180	1	133.5	0	0	0	0	0	0	0	45	450	1350	0	0.0445372628	133.5;
	125	39.0199991	10.6794363	60.6	-15.87	0.989480609	156.06	1	130.05	39.02	0	0	0	0	0	0	3	30	90	0	0.0433862999	39.02;
	126	39.0199991	10.5314233	60.6	-15.87	0.984582941	156.06	1	130.05	39.02	0	0	0	0	0	0	3	30	90	0	0.0433862999	39.02;
	127	39.0199991	10.0351477	60.6	-15.87	0.980838729	156.06	1	130.05	39.02	0	0	0	0	0	0	3	30	90	0	0.0433862999	39.02;
	135	133.919999	-18.1504998	208.02	-54.46	0.969975718	535.68	1	446.4	133.92	0	0	0	0	0	0	3	30	90	0	0.1489246	133.92;
	136	133.919999	-18.6953376	208.02	-54.46	0.971319059	535.68	1	446.4	133.92	0	0	0	0	0	0	3	30	90	0	0.1489246	133.92;
	147	32.8106666	-4.9352964	21.41	-14.47	0.977694852	120.6	1	92.4	0	0	0	0	0	0	0	45	450	1350	0	0.0308257909	92.4;
	151	1.61999911	0.613585564	2.52	-0.66	1.01667027	6.48	1	5.4	1.62	0	0	0	0	0	0	3	30	90	0	0.00180150726	1.62;
	152	23.1699991	-5.60777396	35.99	-9.42	1.0047158	92.67	1	77.22	23.17	0	0	0	0	0	0	3	30	90	0	0.0257615538	23.17;
	153	23.1699991	-5.62361457	35.99	-9.42	1.00258357	92.67	1	77.22	23.17	0	0	0	0	0	0	3	30	90	0	0.0257615538	23.17;
	154	23.1699991	-5.59198352	35.99	-9.42	1.00715874	92.67	1	77.22	23.17	0	0	0	0	0	0	3	30	90	0	0.0257615538	23.17;
	155	23.1699991	-5.59052408	35.99	-9.42	1.00735018	92.67	1	77.22	23.17	0	0	0	0	0	0	3	30	90	0	0.0257615538	23.17;
	161	0	0	70.55	-15.38	1.00838899	166.32	0	138.6	41.58	0	0	0	0	0	0	35	350	1050	0	0	90.09;
	164	0	0	6.11	-1.33	1.01889746	14.4	0	12	3.6	0	0	0	0	0	0	35	350	1050	0	0	7.8;
	165	0	0	13.23	-2.89	1.01889746	31.2	0	26	7.8	0	0	0	0	0	0	35	350	1050	0	0	16.9;
	166	0	0	4.78	-1.04	1.01889746	11.28	0	9.4	2.82	0	0	0	0	0	0	35	350	1050	0	0	6.11;
	167	2.81999909	0.99099015	4.78	-1.04	1.02107996	11.28	1	9.4	2.82	0	0	0	0	0	0	35	350	1050	0	0.00313595708	2.82;
	168	0	0	4.78	-1.04	1.01889746	11.28	0	9.4	2.82	0	0	0	0	0	0	35	350	1050	0	0	6.11;
	169	0	0	4.78	-1.04	1.01889746	11.28	0	9.4	2.82	0	0	0	0	0	0	35	350	1050	0	0	6.11;
	170	2.81999909	0.961733622	4.78	-1.04	1.02282297	11.28	1	9.4	2.82	0	0	0	0	0	0	35	350	1050	0	0.00313595708	2.82;
	182	5.24999911	0.603491639	8.16	-2.14	1.01195919	21	1	17.5	5.25	0	0	0	0	0	0	3	30	90	0	0.00583821798	5.25;
	183	7.97999911	-0.00345892422	12.4	-3.25	1.01005186	31.92	1	26.6	7.98	0	0	0	0	0	0	3	30	90	0	0.00887409132	7.98;
	189	170.749999	-40.4329906	209.45	-46.67	0.995058545	682.98	1	569.15	170.75	0	0	0	0	0	0	20	200	600	0	0.189875529	384.37;
	196	0	0	34.36	-7.49	0.993048685	81	0	67.5	20.25	0	0	0	0	0	0	35	350	1050	0	0	43.875;
	197	0	0	34.36	-7.49	0.993048685	81	0	67.5	20.25	0	0	0	0	0	0	35	350	1050	0	0	43.875;
];

%% branch data
%	fbus	tbus	r	x	b	rateA	rateB	rateC	ratio	angle	status	angmin	angmax	Pf	Qf	Pt	Qt
mpc.branch = [
	1	2	0.000673	0.003339	0	100	0	0	1	0	1	0	0	4.4135	1.2549	-4.4133	-1.2541;
	1	119	0.018542	0.119758	0.02285	221.1	0	0	1	0	1	0	0	17.6053	-5.6117	-17.5404	3.8661;
	1	124	0.005615	0.036268	0.00692	221.1	0	0	1	0	1	0	0	-32.4651	-0.7567	32.5278	0.5061;
	1	193	0.004258	0.027501	0.00525	221.1	0	0	1	0	1	0	0	10.4464	5.1135	-10.4402	-5.5684;
	3	4	0.000573	0.003303	0	100	0	0	1	0	1	0	0	1.0469	0.2956	-1.0469	-0.2956;
	3	57	0.008505	0.058098	0.00988	221.1	0	0	1	0	1	0	0	6.2006	4.9785	-6.1949	-5.9485;
	3	137	0.005889	0.038035	0.00726	221.1	0	0	1	0	1	0	0	-7.2475	-5.2742	7.2519	4.5569;
	5	6	0.000694	0.003337	0	100	0	0	1	0	1	0	0	4.5904	1.3057	-4.5902	-1.3049;
	5	48	0.006246	0.043513	0.00711	221.1	0	0	1	0	1	0	0	6.1279	-1.1074	-6.1255	0.4227;
	5	64	0.007877	0.054875	0.00897	221.1	0	0	1	0	1	0	0	-10.7183	-0.1983	10.7275	-0.6235;
	7	8	0.000634	0.003189	0	100	0	0	1	0	1	0	0	14.1790	4.0504	-14.1775	-4.0430;
	7	86	0.003756	0.024259	0.00463	221.1	0	0	1	0	1	0	0	-9.2592	-1.3842	9.2627	0.9726;
	7	101	0.003597	0.023232	0.00443	221.1	0	0	1	0	1	0	0	-12.4690	-3.9057	12.4755	3.5319;
	7	148	0.008667	0.05598	0.01068	221.1	0	0	1	0	1	0	0	7.5492	1.2394	-7.5436	-2.2026;
	9	10	0.000585	0.003967	0	100	0	0	1	0	1	0	0	25.4928	7.2916	-25.4885	-7.2619;
	9	124	0.008069	0.055123	0.00938	221.1	0	0	1	0	1	0	0	-27.5167	-4.2755	27.5830	3.8422;
	9	131	0.004139	0.026732	0.0051	221.1	0	0	1	0	1	0	0	-0.3213	-0.7667	0.3213	0.2873;
	9	141	0.004446	0.03097	0.00506	221.1	0	0	1	0	1	0	0	4.5166	-0.4097	-4.5156	-0.0591;
	9	193	0.003695	0.025244	0.00429	221.1	0	0	1	0	1	0	0	-2.1714	-1.8396	2.1717	1.4381;
	11	12	0.000534	0.003533	0	100	0	0	1	0	1	0	0	0.1847	0.0554	-0.1847	-0.0554;
	11	13	0.000619	0.003606	0	100	0	0	1	0	1	0	0	1.5519	0.4435	-1.5519	-0.4434;
	11	15	0.010408	0.06722	0.01282	221.1	0	0	1	0	1	0	0	-3.3723	3.4787	3.3752	-4.8048;
	11	93	0.018394	0.128141	0.02095	221.1	0	0	1	0	1	0	0	3.2803	-3.3516	-3.2775	1.1640;
	11	158	0.008519	0.058199	0.0099	221.1	0	0	1	0	1	0	0	-1.6445	-0.6261	1.6448	-0.4132;
	14	15	0.000637	0.027526	0	300	0	0	1	0	1	0	0	30.9542	-27.8453	-30.9435	28.3080;
	14	121	0.007013	0.050098	0.09134	402.36	0	0	1	0	1	0	0	-37.0703	30.3557	37.2474	-38.3754;
	14	149	0.009133	0.065244	0.11895	402.36	0	0	1	0	1	0	0	6.1161	-2.5105	-6.1117	-9.6884;
	15	16	0.000553	0.0032	0	100	0	0	1	0	1	0	0	27.5683	7.8830	-27.5640	-7.8578;
	17	18	0.000503	0.003926	0	100	0	0	1	0	1	0	0	0.4372	0.1232	-0.4372	-0.1232;
	17	19	0.000514	0.003079	0	100	0	0	1	0	1	0	0	0.4742	0.1355	-0.4742	-0.1355;
	17	20	0.000623	0.003339	0	100	0	0	1	0	1	0	0	0.6959	0.1971	-0.6959	-0.1971;
	17	21	0.00062	0.00394	0	100	0	0	1	0	1	0	0	2.8390	0.8071	-2.8389	-0.8067;
	17	109	0.009789	0.068198	0.01115	221.1	0	0	1	0	1	0	0	-16.1497	7.3985	16.1821	-8.2612;
	17	120	0.010316	0.070473	0.01199	221.1	0	0	1	0	1	0	0	11.7034	-8.6613	-11.6821	7.6265;
	22	23	0.000616	0.003222	0	100	0	0	1	0	1	0	0	0.8683	0.2464	-0.8683	-0.2463;
	22	24	0.000687	0.003067	0	100	0	0	1	0	1	0	0	1.4780	0.4188	-1.4780	-0.4188;
	22	27	0.011379	0.073494	0.01402	221.1	0	0	1	0	1	0	0	0.5371	-1.9511	-0.5369	0.4730;
	22	158	0.012701	0.086769	0.01476	221.1	0	0	1	0	1	0	0	-2.8834	1.2860	2.8849	-2.8297;
	25	26	0.00061	0.003071	0	100	0	0	1	0	1	0	0	0.7795	0.2252	-0.7795	-0.2252;
	25	64	0.007643	0.053244	0.0087	221.1	0	0	1	0	1	0	0	-17.2903	16.7688	17.3356	-17.3195;
	25	199	0.009909	0.064003	0.01221	221.1	0	0	1	0	1	0	0	16.5108	-16.9940	-16.4574	16.1025;
	27	28	0.000587	0.003964	0	100	0	0	1	0	1	0	0	1.4349	0.4127	-1.4349	-0.4126;
	27	93	0.025172	0.175362	0.02867	221.1	0	0	1	0	1	0	0	1.2844	-1.6059	-1.2840	-1.4184;
	27	158	0.020429	0.131945	0.02517	221.1	0	0	1	0	1	0	0	-2.1824	0.7202	2.1841	-3.3612;
	29	30	0.000694	0.003131	0	100	0	0	1	0	1	0	0	35.2985	10.1017	-35.2885	-10.0568;
	29	124	0.005561	0.038742	0.00633	221.1	0	0	1	0	1	0	0	-22.9363	-6.1569	22.9694	5.7890;
	29	140	0.007895	0.055004	0.00899	221.1	0	0	1	0	1	0	0	-12.3622	-3.9448	12.3760	3.1920;
	31	32	0.000667	0.003884	0	100	0	0	1	0	1	0	0	0.3513	0.1033	-0.3513	-0.1033;
	31	33	0.000528	0.003639	0	100	0	0	1	0	1	0	0	4.4357	1.2681	-4.4356	-1.2673;
	31	177	0.008406	0.05856	0.00957	221.1	0	0	1	0	1	0	0	-8.7624	-8.7710	8.7753	7.9432;
	31	192	0.008088	0.05525	0.0094	221.1	0	0	1	0	1	0	0	3.9755	7.3995	-3.9689	-8.2461;
	34	35	0.000575	0.003674	0	100	0	0	1	0	1	0	0	12.7853	3.6519	-12.7844	-3.6456;
	34	54	0.006268	0.042819	0.00729	221.1	0	0	1	0	1	0	0	-20.7571	-7.5685	20.7863	7.0110;
	34	137	0.006911	0.044639	0.00852	221.1	0	0	1	0	1	0	0	7.9717	3.9166	-7.9662	-4.7601;
	36	37	0.000552	0.003328	0	100	0	0	1	0	1	0	0	2.4589	0.7028	-2.4589	-0.7025;
	36	38	0.00067	0.003511	0	100	0	0	1	0	1	0	0	20.5349	5.8709	-20.5318	-5.8544;
	36	58	0.010889	0.07439	0.01266	221.1	0	0	1	0	1	0	0	2.0578	-11.5256	-2.0440	10.3838;
	36	83	0.009615	0.066986	0.01095	221.1	0	0	1	0	1	0	0	-25.0516	4.9519	25.1169	-5.5568;
	39	40	0.000505	0.003103	0	100	0	0	1	0	1	0	0	1.2563	0.3572	-1.2563	-0.3572;
	39	85	0.008702	0.060625	0.00991	221.1	0	0	1	0	1	0	0	-7.5762	7.0036	7.5861	-7.9245;
	39	159	0.007332	0.05108	0.00835	221.1	0	0	1	0	1	0	0	1.7567	-8.6602	-1.7516	7.8559;
	41	100	0.004595	0.029676	0.00566	221.1	0	0	1	0	1	0	0	-11.4835	-27.2896	11.5214	26.9385;
	41	163	0.003165	0.021623	0.00368	221.1	0	0	1	0	1	0	0	-1.6556	13.4016	1.6613	-13.7459;
	41	180	0.009408	0.060766	0.01159	221.1	0	0	1	0	1	0	0	-9.8188	7.3431	9.8332	-8.4556;
	42	44	0.012256	0.085383	0.01396	221.1	0	0	1	0	1	0	0	-10.2284	8.0177	10.2504	-9.2657;
	42	181	0.008008	0.05579	0.00912	221.1	0	0	1	0	1	0	0	3.6885	-9.8836	-3.6803	9.0149;
	43	84	0.007509	0.051295	0.00873	221.1	0	0	1	0	1	0	0	5.7501	-3.9121	-5.7465	3.1113;
	43	132	0.011052	0.075503	0.01285	221.1	0	0	1	0	1	0	0	-6.9982	3.5598	7.0060	-4.7170;
	44	200	0.014813	0.101195	0.01722	221.1	0	0	1	0	1	0	0	-12.8060	8.5391	12.8435	-9.9876;
	45	46	0.000936	0.049195	0	160	0	0	1	0	1	0	0	17.5713	-3.3248	-17.5682	3.4852;
	45	55	0.002593	0.018527	0.03378	402.36	0	0	1	0	1	0	0	6.1758	13.6958	-6.1685	-16.9472;
	45	102	0.0029	0.020715	0.03777	402.36	0	0	1	0	1	0	0	-10.3271	19.6255	10.3439	-23.1946;
	45	187	0.003474	0.024821	0.04525	402.36	0	0	1	0	1	0	0	-13.4199	-29.9965	13.4537	25.7656;
	46	61	0.006971	0.048561	0.00794	221.1	0	0	1	0	1	0	0	3.4529	6.7586	-3.4484	-7.5058;
	46	122	0.010129	0.065419	0.01248	221.1	0	0	1	0	1	0	0	9.7486	-11.4905	-9.7267	10.3968;
	47	54	0.006678	0.045623	0.00776	221.1	0	0	1	0	1	0	0	7.0470	2.0231	-7.0435	-2.8096;
	47	66	0.007339	0.047401	0.00904	221.1	0	0	1	0	1	0	0	-7.9954	-2.2941	8.0001	1.3773;
	48	49	0.027149	0.532021	0	28.9	0	0	1	0	1	0	0	-1.3594	-0.6272	1.3600	0.6393;
	48	50	0.021719	0.404167	0	28.7	0	0	1	0	1	0	0	-1.3595	-0.6298	1.3600	0.6390;
	48	51	0.027149	0.612711	0	24.3	0	0	1	0	1	0	0	-1.3594	-0.6244	1.3600	0.6383;
	48	52	0.021719	0.379817	0	24.3	0	0	1	0	1	0	0	-1.3595	-0.6292	1.3600	0.6379;
	48	53	0.02121	0.576549	0	35.3	0	0	1	0	1	0	0	-2.7182	-0.9560	2.7200	1.0045;
	48	74	0.007959	0.054369	0.00925	221.1	0	0	1	0	1	0	0	13.2307	2.7437	-13.2157	-3.5516;
	54	66	0.007051	0.045544	0.00869	221.1	0	0	1	0	1	0	0	-15.3809	-4.6694	15.3981	3.8712;
	55	56	0.005152	0.124653	0	160	0	0	1	0	1	0	0	2.7068	0.0155	-2.7064	-0.0061;
	55	81	0.005467	0.039054	0.0712	402.36	0	0	1	0	1	0	0	40.1807	-31.2711	-40.0469	25.2236;
	55	102	0.001246	0.008902	0.01623	402.36	0	0	1	0	1	0	0	-36.7593	17.2089	36.7807	-18.6362;
	55	112	0.004166	0.029763	0.05426	402.36	0	0	1	0	1	0	0	0.3191	14.4854	-0.3065	-19.6576;
	55	128	0.003415	0.024395	0.04448	402.36	0	0	1	0	1	0	0	-0.2788	16.5085	0.2910	-20.7371;
	56	103	0.004282	0.02983	0.00488	221.1	0	0	1	0	1	0	0	1.8041	-0.2487	-1.8040	-0.2258;
	57	159	0.00752	0.051369	0.00874	221.1	0	0	1	0	1	0	0	4.4583	5.4559	-4.4543	-6.3145;
	58	95	0.009836	0.063526	0.01212	221.1	0	0	1	0	1	0	0	4.5790	-21.9087	-4.5316	21.0059;
	58	177	0.014049	0.095972	0.01633	221.1	0	0	1	0	1	0	0	-5.4485	10.6915	5.4716	-12.1251;
	59	119	0.011209	0.072397	0.01381	221.1	0	0	1	0	1	0	0	-7.0492	5.6027	7.0596	-6.8521;
	59	139	0.009665	0.062426	0.01191	221.1	0	0	1	0	1	0	0	4.2244	-6.4089	-4.2192	5.2990;
	60	97	0.012274	0.079279	0.01512	221.1	0	0	1	0	1	0	0	23.1076	-9.2803	-23.0303	8.3163;
	60	134	0.009007	0.062749	0.01026	221.1	0	0	1	0	1	0	0	-25.3770	8.6353	25.4450	-9.1472;
	61	103	0.006539	0.045556	0.00745	221.1	0	0	1	0	1	0	0	-10.7055	3.4697	10.7142	-4.1360;
	62	159	0.008634	0.058979	0.01003	221.1	0	0	1	0	1	0	0	-5.3472	0.7913	5.3498	-1.7877;
	62	160	0.007628	0.053144	0.00869	221.1	0	0	1	0	1	0	0	-7.8374	-4.5478	7.8433	3.7078;
	63	66	0.011949	0.083244	0.01361	221.1	0	0	1	0	1	0	0	-15.9927	3.2200	16.0235	-4.4351;
	63	184	0.017963	0.116023	0.02214	221.1	0	0	1	0	1	0	0	11.0784	-4.6179	-11.0554	2.4331;
	64	65	0.00128	0.10157	0	195.5	0	0	1	0	1	0	0	-28.0631	17.9430	28.0775	-16.8026;
	66	67	0.020951	0.144786	0	30	0	0	1	0	1	0	0	-1.4095	-0.5225	1.4100	0.5256;
	66	68	0.00689	0.264997	0	73	0	0	1	0	1	0	0	-8.3753	1.0111	8.3800	-0.8314;
	66	69	0.00441	0.09499	0	70.5	0	0	1	0	1	0	0	-8.3770	0.8387	8.3800	-0.7745;
	66	70	0.00689	0.199449	0	70.5	0	0	1	0	1	0	0	-8.3753	0.9455	8.3800	-0.8104;
	66	71	0.003528	0.081544	0	68	0	0	1	0	1	0	0	-8.3776	0.8244	8.3800	-0.7693;
	66	72	0.003528	0.074599	0	68	0	0	1	0	1	0	0	-8.3776	0.8172	8.3800	-0.7669;
	66	73	0.00689	0.146423	0	65	0	0	1	0	1	0	0	-8.3753	0.8910	8.3800	-0.7920;
	66	158	0.004993	0.032251	0.00615	221.1	0	0	1	0	1	0	0	12.2461	-5.6188	-12.2376	5.0276;
	74	190	0.008894	0.06076	0.01034	221.1	0	0	1	0	1	0	0	2.3840	0.4626	-2.3834	-1.4721;
	75	76	0.038464	0.784328	0	24.3	0	0	1	0	1	0	0	-1.1992	-0.8044	1.2000	0.8216;
	75	77	0.08013	2.192105	0	7.4	0	0	1	0	1	0	0	-0.7194	-0.4649	0.7200	0.4817;
	75	78	0.008544	0.181406	0	65	0	0	1	0	1	0	0	-0.0000	0.0000	0.0000	0.0000;
	75	79	0.01068	0.277774	0	62.1	0	0	1	0	1	0	0	-0.0000	-0.0000	0.0000	0.0000;
	75	108	0.010988	0.070969	0.01354	221.1	0	0	1	0	1	0	0	8.7588	-0.4919	-8.7500	-0.7432;
	75	157	0.013487	0.087112	0.01662	221.1	0	0	1	0	1	0	0	-8.9902	1.1462	9.0021	-2.6561;
	80	100	0.021463	0.149525	0.02444	221.1	0	0	1	0	1	0	0	2.4790	-8.6935	-2.4664	6.2143;
	80	143	0.020594	0.14347	0.02345	221.1	0	0	1	0	1	0	0	-3.3652	8.4420	3.3859	-10.7053;
	81	82	0.00097	0.042371	0	250	0	0	1	0	1	0	0	17.3964	4.1876	-17.3933	-4.0509;
	81	178	0.006598	0.047137	0.08594	402.36	0	0	1	0	1	0	0	22.6505	-29.4112	-22.5743	21.3351;
	82	195	0.003845	0.026265	0.00447	221.1	0	0	1	0	1	0	0	13.0051	2.7980	-12.9982	-3.1920;
	83	146	0.005382	0.036767	0.00626	221.1	0	0	1	0	1	0	0	-10.6957	2.7634	10.7026	-3.3210;
	83	186	0.00792	0.055174	0.00902	221.1	0	0	1	0	1	0	0	-16.5839	2.1805	16.6070	-2.8913;
	84	113	0.006652	0.04544	0.00773	221.1	0	0	1	0	1	0	0	3.5070	-3.7503	-3.5053	3.0287;
	85	120	0.007786	0.050291	0.00959	221.1	0	0	1	0	1	0	0	-10.5605	7.0746	10.5737	-7.9406;
	86	101	0.00512	0.033072	0.00631	221.1	0	0	1	0	1	0	0	-1.9644	-2.0435	1.9648	1.4534;
	86	142	0.003387	0.023141	0.00394	221.1	0	0	1	0	1	0	0	-4.9608	2.0877	4.9619	-2.4499;
	86	193	0.006606	0.042664	0.00814	221.1	0	0	1	0	1	0	0	-7.2644	-2.4202	7.2684	1.6812;
	87	88	0.000832	0.034189	0	350	0	0	1	0	1	0	0	38.7622	-2.6290	-38.7499	3.1325;
	87	149	0.001621	0.011579	0.02111	402.36	0	0	1	0	1	0	0	-38.7622	2.6290	38.7862	-4.6217;
	88	150	0.00557	0.035973	0.00686	221.1	0	0	1	0	1	0	0	-15.1421	-2.1193	15.1547	1.4957;
	88	176	0.003859	0.024922	0.00475	221.1	0	0	1	0	1	0	0	17.2603	3.1312	-17.2487	-3.5428;
	88	194	0.004258	0.029088	0.00495	221.1	0	0	1	0	1	0	0	7.3531	-12.4877	-7.3447	12.0359;
	89	90	0.0601	2.279922	0	8.6	0	0	1	0	1	0	0	-0.9593	-0.4987	0.9600	0.5253;
	89	91	0.024614	0.503424	0	32	0	0	1	0	1	0	0	-1.4993	-0.8067	1.5000	0.8213;
	89	92	0.019539	0.36204	0	35.3	0	0	1	0	1	0	0	0.0000	0.0000	0.0000	0.0000;
	89	95	0.008734	0.056409	0.01076	221.1	0	0	1	0	1	0	0	-2.4573	-9.7701	2.4653	8.7395;
	89	188	0.00805	0.051996	0.00992	221.1	0	0	1	0	1	0	0	-38.3723	-1.2601	38.4908	1.0301;
	93	94	0.01068	0.280602	0	62.1	0	0	1	0	1	0	0	-5.3971	-0.0679	5.4000	0.1454;
	93	191	0.022088	0.142662	0.02722	221.1	0	0	1	0	1	0	0	8.0742	-0.2135	-8.0602	-2.5605;
	96	122	0.01062	0.073986	0.01209	221.1	0	0	1	0	1	0	0	-16.7409	8.3329	16.7789	-9.2780;
	96	143	0.015858	0.102423	0.01954	221.1	0	0	1	0	1	0	0	19.4887	-7.6769	-19.4218	6.1365;
	96	188	0.010903	0.070421	0.01343	221.1	0	0	1	0	1	0	0	-4.7865	-1.2345	4.7891	-0.1011;
	97	200	0.01318	0.085125	0.01624	221.1	0	0	1	0	1	0	0	18.6528	-9.5644	-18.5952	8.3495;
	98	99	0.000643	0.030516	0	250	0	0	1	0	1	0	0	34.5508	5.9697	-34.5425	-5.5746;
	98	123	0.0047	0.033574	0.06121	402.36	0	0	1	0	1	0	0	-34.5508	-5.9697	34.6104	0.5657;
	99	142	0.007605	0.052982	0.00866	221.1	0	0	1	0	1	0	0	27.2746	3.5023	-27.2135	-3.8924;
	100	174	0.010698	0.074531	0.01218	221.1	0	0	1	0	1	0	0	-9.3901	14.4525	9.4220	-15.5104;
	100	179	0.007093	0.049413	0.00808	221.1	0	0	1	0	1	0	0	-17.4038	28.1451	17.4786	-28.4708;
	100	184	0.012745	0.08879	0.01451	221.1	0	0	1	0	1	0	0	-4.6502	2.7519	4.6543	-4.2594;
	101	110	0.00196	0.012657	0.00241	221.1	0	0	1	0	1	0	0	-2.8898	0.0214	2.8899	-0.2467;
	101	117	0.005245	0.035833	0.0061	221.1	0	0	1	0	1	0	0	-9.3778	-5.1233	9.3840	4.5912;
	101	141	0.003144	0.020305	0.00387	221.1	0	0	1	0	1	0	0	-2.4832	0.0271	2.4834	-0.3894;
	102	103	0.001709	0.054578	0	250	0	0	1	0	1	0	0	13.5000	-2.0388	-13.4967	2.1434;
	102	104	0.0021	0.087749	0	130	0	0	1	0	1	0	0	-25.7665	7.8425	25.7821	-7.1880;
	102	105	0.00097	0.059419	0	260	0	0	1	0	1	0	0	-51.3925	22.3846	51.4238	-20.4649;
	102	128	0.0027	0.019292	0.03517	402.36	0	0	1	0	1	0	0	16.5344	13.6426	-16.5203	-16.9502;
	103	106	0.007749	0.053987	0.00883	221.1	0	0	1	0	1	0	0	4.5865	2.2185	-4.5843	-3.0617;
	106	130	0.006991	0.047761	0.00813	221.1	0	0	1	0	1	0	0	3.1654	2.6554	-3.1640	-3.4338;
	107	113	0.006748	0.046101	0.00784	221.1	0	0	1	0	1	0	0	-21.2219	-4.3634	21.2552	3.8496;
	107	129	0.005168	0.035307	0.00601	221.1	0	0	1	0	1	0	0	-17.5131	-3.7347	17.5306	3.2861;
	107	192	0.003939	0.025441	0.00485	221.1	0	0	1	0	1	0	0	2.5340	-2.2194	-2.5336	1.7647;
	108	198	0.024792	0.160126	0.03055	221.1	0	0	1	0	1	0	0	3.1243	-0.8573	-3.1217	-2.0327;
	109	186	0.008774	0.059942	0.0102	221.1	0	0	1	0	1	0	0	-19.3597	7.3560	19.3991	-8.0756;
	110	193	0.003444	0.022243	0.00424	221.1	0	0	1	0	1	0	0	-9.3755	-1.5987	9.3788	1.2212;
	111	163	0.005281	0.034111	0.00651	221.1	0	0	1	0	1	0	0	-5.4123	-1.1787	5.4138	0.5131;
	111	175	0.00795	0.055386	0.00905	221.1	0	0	1	0	1	0	0	0.1309	-0.3243	-0.1309	-0.6141;
	112	113	0.002077	0.058615	0	350	0	0	1	0	1	0	0	47.6761	11.9184	-47.6241	-10.4509;
	112	114	0.06	0.434013	0	20	0	0	1	0	1	0	0	-0.6957	-0.0541	0.6960	0.0563;
	112	115	0.00128	0.062771	0	200	0	0	1	0	1	0	0	-44.9252	14.4371	44.9548	-12.9882;
	112	128	0.001295	0.009255	0.01687	402.36	0	0	1	0	1	0	0	-1.7486	-6.6437	1.7490	5.0190;
	113	192	0.005418	0.034995	0.00668	221.1	0	0	1	0	1	0	0	29.8741	3.5727	-29.8224	-3.8705;
	116	117	0.000517	0.034943	0	300	0	0	1	0	1	0	0	59.0842	4.9465	-59.0650	-3.6504;
	116	133	0.00389	0.027793	0.05067	402.36	0	0	1	0	1	0	0	-59.0842	-4.9465	59.2277	1.1540;
	117	132	0.011912	0.082984	0.01357	221.1	0	0	1	0	1	0	0	23.1743	-0.9365	-23.1065	0.1305;
	117	162	0.01617	0.104442	0.01993	221.1	0	0	1	0	1	0	0	6.1541	-5.8032	-6.1436	3.9814;
	118	131	0.00718	0.046377	0.00885	221.1	0	0	1	0	1	0	0	18.4144	4.7789	-18.3866	-5.4352;
	118	134	0.011598	0.0808	0.01321	221.1	0	0	1	0	1	0	0	-20.8529	-3.2841	20.9069	2.4027;
	118	198	0.009487	0.064809	0.01103	221.1	0	0	1	0	1	0	0	0.0855	-2.1636	-0.0853	1.1190;
	121	122	0.000786	0.063023	0	200	0	0	1	0	1	0	0	17.6892	4.3580	-17.6866	-4.1492;
	121	178	0.008903	0.063604	0.11596	402.36	0	0	1	0	1	0	0	38.1230	-19.7854	-37.9765	9.1469;
	121	187	0.001063	0.007593	0.01384	402.36	0	0	1	0	1	0	0	-93.0596	53.8027	93.1830	-54.3036;
	123	124	0.000329	0.017481	0	400	0	0	1	0	1	0	0	115.1235	16.5811	-115.0769	-14.1050;
	123	125	0.00448	0.104562	0	170	0	0	1	0	1	0	0	-38.9451	-8.9316	39.0200	10.6794;
	123	126	0.00148	0.066043	0	170	0	0	1	0	1	0	0	-38.9951	-9.4186	39.0200	10.5314;
	123	127	0.001	0.031691	0	170	0	0	1	0	1	0	0	-39.0031	-9.5004	39.0200	10.0351;
	123	133	0.001459	0.010423	0.019	402.36	0	0	1	0	1	0	0	-29.9338	8.2617	29.9487	-9.9684;
	123	156	0.001117	0.007981	0.01455	402.36	0	0	1	0	1	0	0	-2.8568	2.4421	2.8570	-3.8299;
	124	193	0.006577	0.04582	0.00749	221.1	0	0	1	0	1	0	0	31.9967	3.9677	-31.9245	-4.1721;
	128	129	0.000753	0.044453	0	250	0	0	1	0	1	0	0	70.7724	20.9530	-70.7299	-18.4455;
	128	133	0.009554	0.068257	0.12444	402.36	0	0	1	0	1	0	0	-56.2921	11.7153	56.6367	-21.1988;
	130	144	0.022678	0.157988	0.02583	221.1	0	0	1	0	1	0	0	0.1335	2.5728	-0.1301	-5.0323;
	133	134	0.0002	0.013328	0	400	0	0	1	0	1	0	0	101.1750	-12.4760	-101.1532	13.9277;
	133	135	0.00043	0.033512	0	580	0	0	1	0	1	0	0	-133.8365	24.6559	133.9200	-18.1505;
	133	136	0.00043	0.027478	0	580	0	0	1	0	1	0	0	-133.8367	24.0205	133.9200	-18.6953;
	133	156	0.001958	0.013985	0.0255	402.36	0	0	1	0	1	0	0	20.6850	-6.1872	-20.6757	3.8200;
	134	140	0.010445	0.071357	0.01214	221.1	0	0	1	0	1	0	0	17.3137	3.6702	-17.2790	-4.5895;
	134	186	0.014463	0.093412	0.01782	221.1	0	0	1	0	1	0	0	37.4876	-10.8534	-37.2602	10.6086;
	138	139	0.026477	0.184455	0.03015	221.1	0	0	1	0	1	0	0	-0.1274	3.5784	0.1343	-6.4635;
	138	195	0.008728	0.05637	0.01075	221.1	0	0	1	0	1	0	0	-1.0793	-3.9248	1.0805	2.8742;
	141	148	0.01019	0.065817	0.01256	221.1	0	0	1	0	1	0	0	11.5941	2.1728	-11.5787	-3.2498;
	141	193	0.002896	0.018702	0.00357	221.1	0	0	1	0	1	0	0	-10.4099	-1.9691	10.4134	1.6556;
	144	162	0.006962	0.048504	0.00793	221.1	0	0	1	0	1	0	0	-5.2746	3.4915	5.2777	-4.2262;
	145	176	0.008799	0.060111	0.01023	221.1	0	0	1	0	1	0	0	-5.9649	-1.3510	5.9681	0.3266;
	145	185	0.010839	0.075509	0.01234	221.1	0	0	1	0	1	0	0	-4.4434	-1.6161	4.4456	0.3697;
	146	147	0.0025	0.10181	0	130.6	0	0	1	0	1	0	0	-32.7819	6.1078	32.8107	-4.9353;
	146	177	0.011064	0.07708	0.0126	221.1	0	0	1	0	1	0	0	22.0793	-2.7868	-22.0229	1.9641;
	149	150	0.000412	0.020251	0	400	0	0	1	0	1	0	0	61.5519	-10.4855	-61.5362	11.2555;
	149	151	0.02267	0.625521	0	20	0	0	1	0	1	0	0	-1.6193	-0.5954	1.6200	0.6136;
	149	152	0.00249	0.141687	0	100	0	0	1	0	1	0	0	-23.1560	6.4054	23.1700	-5.6078;
	149	153	0.00549	0.184603	0	100	0	0	1	0	1	0	0	-23.1390	6.6676	23.1700	-5.6236;
	149	154	0.00249	0.10294	0	100	0	0	1	0	1	0	0	-23.1561	6.1685	23.1700	-5.5920;
	149	155	0.00249	0.099835	0	100	0	0	1	0	1	0	0	-23.1561	6.1494	23.1700	-5.5905;
	150	185	0.013458	0.091934	0.01564	221.1	0	0	1	0	1	0	0	10.8641	0.6936	-10.8484	-2.1915;
	150	194	0.003138	0.021435	0.00365	221.1	0	0	1	0	1	0	0	35.5174	-13.4448	-35.4736	13.3678;
	156	157	0.000592	0.045654	0	300	0	0	1	0	1	0	0	17.8187	0.0099	-17.8168	0.1419;
	160	161	0.00139	0.080288	0	180.2	0	0	1	0	1	0	0	-0.0000	-0.0000	0.0000	0.0000;
	160	181	0.004296	0.029345	0.00499	221.1	0	0	1	0	1	0	0	-7.8433	-3.7078	7.8464	3.2209;
	163	164	0.008207	0.11301	0	58.1	0	0	1	0	1	0	0	0.0000	0.0000	0.0000	0.0000;
	163	165	0.0074	0.301657	0	65	0	0	1	0	1	0	0	0.0000	0.0000	-0.0000	-0.0000;
	163	166	0.016368	0.382075	0	42	0	0	1	0	1	0	0	0.0000	0.0000	0.0000	0.0000;
	163	167	0.010476	0.196499	0	42	0	0	1	0	1	0	0	-2.8191	-0.9742	2.8200	0.9910;
	163	168	0.018	0.490983	0	40	0	0	1	0	1	0	0	0.0000	0.0000	0.0000	0.0000;
	163	169	0.016368	0.396417	0	40	0	0	1	0	1	0	0	0.0000	0.0000	-0.0000	-0.0000;
	163	170	0.016368	0.374902	0	35.6	0	0	1	0	1	0	0	-2.8186	-0.9299	2.8200	0.9617;
	163	179	0.00579	0.039557	0.00673	221.1	0	0	1	0	1	0	0	-28.8624	7.3225	28.9121	-7.6805;
	171	190	0.009866	0.0674	0.01147	221.1	0	0	1	0	1	0	0	7.3164	0.2001	-7.3110	-1.2878;
	171	195	0.011644	0.081116	0.01326	221.1	0	0	1	0	1	0	0	-11.9009	-1.5050	11.9177	0.3178;
	172	180	0.015296	0.106558	0.01742	221.1	0	0	1	0	1	0	0	1.0239	-3.2592	-1.0229	1.4651;
	172	199	0.024005	0.155042	0.02958	221.1	0	0	1	0	1	0	0	-4.2455	2.3430	4.2531	-5.3298;
	173	174	0.015373	0.099293	0.01894	221.1	0	0	1	0	1	0	0	-9.4634	-1.0307	9.4766	-0.8518;
	173	175	0.008572	0.055363	0.01056	221.1	0	0	1	0	1	0	0	4.2478	-0.4543	-4.2463	-0.6314;
	174	188	0.017952	0.12264	0.02087	221.1	0	0	1	0	1	0	0	-20.5573	15.8892	20.6799	-17.1890;
	178	179	0.000495	0.036157	0	250	0	0	1	0	1	0	0	60.5508	-30.4820	-60.5284	32.1214;
	180	191	0.026393	0.183866	0.03006	221.1	0	0	1	0	1	0	0	-3.7253	-4.4214	3.7309	1.3270;
	180	199	0.012185	0.078698	0.01501	221.1	0	0	1	0	1	0	0	-9.7196	10.0885	9.7446	-11.4714;
	181	182	0.01099	0.297746	0	60.3	0	0	1	0	1	0	0	-5.2470	-0.5223	5.2500	0.6035;
	181	183	0.004627	0.114254	0	65	0	0	1	0	1	0	0	-7.9771	0.0748	7.9800	-0.0035;
	181	194	0.004395	0.028384	0.00542	221.1	0	0	1	0	1	0	0	-20.4889	-20.2065	20.5241	19.8778;
	187	188	0.001394	0.044762	0	400	0	0	1	0	1	0	0	64.0201	-14.3252	-63.9598	16.2601;
	187	189	0.0003	0.007815	0	740	0	0	1	0	1	0	0	-170.6567	42.8632	170.7500	-40.4330;
	195	196	0.00285	0.060038	0	87.7	0	0	1	0	1	0	0	-0.0000	-0.0000	0.0000	0.0000;
	195	197	0.00285	0.191484	0	87.7	0	0	1	0	1	0	0	-0.0000	0.0000	0.0000	-0.0000;
];

%% generator cost data
%	2	startup	shutdown	n	c(n-1)	...	c0
%	Using quadratic cost curves only
mpc.gencost = [
	2	0	0	3	0.002	19	236.12;
	2	0	0	3	0.002	19	236.12;
	2	0	0	3	0.002	19	236.12;
	2	0	0	3	0.002	19	236.12;
	2	0	0	3	0.002	19	236.24;
	2	0	0	3	0	0	0;
	2	0	0	3	0.002	19	236.13;
	2	0	0	3	0.002	19	236.74;
	2	0	0	3	0.002	19	236.74;
	2	0	0	3	0.002	19	236.74;
	2	0	0	3	0.002	19	236.74;
	2	0	0	3	0.002	19	236.74;
	2	0	0	3	0.002	19	236.74;
	2	0	0	3	0.002	23.157	606;
	2	0	0	3	0.002	23.146	603.6;
	2	0	0	3	0.002	23.252	627;
	2	0	0	3	0.002	23.252	627;
	2	0	0	3	0.002	23.152	604.8;
	2	0	0	3	0.002	23.164	607.5;
	2	0	0	3	0.002	23.173	609.45;
	2	0	0	3	0.002	19	236.48;
	2	0	0	3	0	0	0;
	2	0	0	3	0	0	0;
	2	0	0	3	0	0	0;
	2	0	0	3	0	0	0;
	2	0	0	3	0.002	19	610.14;
	2	0	0	3	0.002	19	610.14;
	2	0	0	3	0.002	19	610.14;
	2	0	0	3	0.002	19	1261.33;
	2	0	0	3	0.002	19	1261.33;
	2	0	0	3	0	0	0;
	2	0	0	3	0.002	19	236.14;
	2	0	0	3	0.002	19	253.01;
	2	0	0	3	0.002	19	253.01;
	2	0	0	3	0.002	19	253.01;
	2	0	0	3	0.002	19	253.01;
	2	0	0	3	0.002	24.07	807.9;
	2	0	0	3	0.002	23.211	618;
	2	0	0	3	0.002	23.306	639;
	2	0	0	3	0.002	23.194	614.1;
	2	0	0	3	0.002	23.194	614.1;
	2	0	0	3	0.002	23.194	614.1;
	2	0	0	3	0.002	23.194	614.1;
	2	0	0	3	0.002	23.194	614.1;
	2	0	0	3	0.002	19	236.47;
	2	0	0	3	0.002	19	236.71;
	2	0	0	3	0	6.71	1272.13;
	2	0	0	3	0.002	23.588	701.25;
	2	0	0	3	0.002	23.588	701.25;
];

%% generator fuel type
mpc.genfuel = {
	"coal";
	"coal";
	"coal";
	"coal";
	"coal";
	"wind";
	"coal";
	"coal";
	"coal";
	"coal";
	"coal";
	"coal";
	"coal";
	"ng";
	"ng";
	"ng";
	"ng";
	"ng";
	"ng";
	"ng";
	"coal";
	"wind";
	"wind";
	"wind";
	"wind";
	"coal";
	"coal";
	"coal";
	"coal";
	"coal";
	"wind";
	"coal";
	"coal";
	"coal";
	"coal";
	"coal";
	"ng";
	"ng";
	"ng";
	"ng";
	"ng";
	"ng";
	"ng";
	"ng";
	"coal";
	"coal";
	"nuclear";
	"ng";
	"ng";

};

%% summary data
mpc.summary_stats = [
%	Nbus	Ngen	NgenON	Nline	NlineON	Nload	GenPCap	GenTotalP	GenTotalQ	GenPCapON	LoadTotP	LoadTotalQ	LoadShedP	LoadShedQ
	200	49	38	245	245	108	3379.59	922.19491	-125.467498	2997.49	917.023801	261.339075	0	0
];

%% solve time
mpc.solve_time = 0;
